grep -i sim_CPI *.txt
grep -i sim_num_insn *.txt
grep -i 'dl1.miss_rate' *.txt
